SIM_PATH=/home/sdrea/Desktop/sim/sim-outorder
#CFG_PATH=/home/sdrea/Desktop/sim/config/baseline.cfg
#CFG_PATH=/home/sdrea/Desktop/sim/config/compressed_4lat.cfg
CFG_PATH=/home/sdrea/Desktop/sim/config/compressed_4lat_last64.cfg
#CFG_PATH=/home/sdrea/Desktop/sim/config/compressed_4lat_stride64.cfg
#CFG_PATH=/home/sdrea/Desktop/sim/config/compressed_4lat_last128.cfg
#CFG_PATH=/home/sdrea/Desktop/sim/config/compressed_4lat_stride128.cfg
#CFG_PATH=/home/sdrea/Desktop/sim/config/compressed_4lat_last256.cfg
#CFG_PATH=/home/sdrea/Desktop/sim/config/compressed_4lat_stride256.cfg
VCD_PATH=/home/sdrea/Desktop/
VCD=100M
INT=100000
SP=305

cd /home/sdrea/sp2k/176.gcc/

$SIM_PATH \
-config $CFG_PATH \
-interval $INT \
-simpoint $SP \
cc1 200.i -o 200.s > /dev/null

#-vcd_path $VCD_PATH \
#-vcd_suffix $VCD \

