SIM_PATH=/home/sdrea/Desktop/sim/sim-outorder
CFG_PATH=/home/sdrea/Desktop/sim/config/compressed.cfg
VCD_PATH=/home/sdrea/Desktop/sim/
VCD=100M
INT=100000000
SP=10

cd /home/sdrea/sp2k/164.gzip/

$SIM_PATH \
-config $CFG_PATH \
-interval $INT \
-simpoint $SP \
-vcd_path $VCD_PATH \
-vcd_suffix $VCD \
gzip \
input.graphic \
2 \
> /dev/null
