SIM_PATH=/home/sdrea/Desktop/sim/sim-outorder
CFG_PATH=/home/sdrea/Desktop/sim/config/compressed_4lat.cfg
VCD_PATH=/home/sdrea/Desktop/
VCD=100M
INT=100000
SP=305

cd /home/sdrea/sp2k/176.gcc/

$SIM_PATH \
-config $CFG_PATH \
-interval $INT \
-simpoint $SP \
-vcd_path $VCD_PATH \
-vcd_suffix $VCD \
cc1 200.i -o 200.s > /dev/null
