SIM_PATH=/home/sdrea/sim/sim-outorder
CFG_PATH=/home/sdrea/sim/config/002_CP_LO64_8BUF.cfg
INT=1000000
SP=305

cd /home/sdrea/sp2k/176.gcc/

$SIM_PATH \
-config $CFG_PATH \
-interval $INT \
-simpoint $SP \
cc1 200.i -o 200.s > /dev/null


